/*--------------------------------*- C++ -*----------------------------------*\
  =========                 |
  \\      /  F ield         | OpenFOAM: The Open Source CFD Toolbox
   \\    /   O peration     | Website:  https://openfoam.org
    \\  /    A nd           | Version:  11
     \\/     M anipulation  |
\*---------------------------------------------------------------------------*/
FoamFile
{
    format      ascii;
    class       dictionary;
    object      blockMeshDict;
}
// * * * * * * * * * * * * * * * * * * * * * * * * * * * * * * * * * * * * * //

convertToMeters .1;

vertices
(
    (0 0 0)
    (1 0 0)
    (1 1 0)
    (0 1 0)
    (0 0 1)
    (1 0 1)
    (1 1 1)
    (0 1 1)
);

blocks
(
    hex (0 1 2 3 4 5 6 7) (50 50 50) 
	simpleGrading (
		(
            (0.2 0.3 4)    // 20% y-dir, 30% cells, expansion = 4
            (0.6 0.4 1)    // 60% y-dir, 40% cells, expansion = 1
            (0.2 0.3 0.25) // 20% y-dir, 30% cells, expansion = 0.25 (1/4)
        )
        (
            (0.2 0.3 4)    // 20% y-dir, 30% cells, expansion = 4
            (0.6 0.4 1)    // 60% y-dir, 40% cells, expansion = 1
            (0.2 0.3 0.25) // 20% y-dir, 30% cells, expansion = 0.25 (1/4)
        )
		(
            (0.2 0.3 4)    // 20% y-dir, 30% cells, expansion = 4
            (0.6 0.4 1)    // 60% y-dir, 40% cells, expansion = 1
            (0.2 0.3 0.25) // 20% y-dir, 30% cells, expansion = 0.25 (1/4)
        )                  
	)
);

boundary
(
    hot
    {
        type wall;
        faces
        (
            (1 5 4 0)
        );
    }
    cold
    {
        type wall;
        faces
        (
            (3 7 6 2)
        );
    }
    fixedWalls
    {
        type wall;
        faces
        (
            (0 4 7 3)
            (2 6 5 1)
            (0 3 2 1)
            (4 5 6 7)
        );
    }
);


// ************************************************************************* //
